voltage-tiling/data/p13u_violations/p13uhs5_1247--p13udt27246/Lines.dss
New Line.l(r:p13udt4757lv-p13ulv10490) Units=km Length=0.0106073 bus1=p13udt4757lv.1.2 bus2=p13ulv10490.1.2 switch=n enabled=y phases=2 Linecode=1P_OH_AL_2/0_Rucina_2

New Line.l(r:p13udt4757lv-p13ulv10491) Units=km Length=0.0247017 bus1=p13udt4757lv.1.2 bus2=p13ulv10491.1.2 switch=n enabled=y phases=2 Linecode=1P_OH_AL_2/0_Rucina_2

New Line.l(r:p13udm20471-p13ulv102680) Units=km Length=0.0039777 bus1=p13udm20471.1.2 bus2=p13ulv102680.1.2 switch=n enabled=y phases=2 Linecode=1P_OH_AL_4_Periwinkle_2

New Line.l(r:p13udm20471-p13udt4757lv) Units=km Length=0.0348093 bus1=p13udt4757lv.1.2 bus2=p13udm20471.1.2 switch=n enabled=y phases=2 Linecode=1P_OH_AL_4/0_Zuzara_2

New Line.l(r:p13udt4759lv-p13ulv10494) Units=km Length=0.00596923 bus1=p13udt4759lv.1.2 bus2=p13ulv10494.1.2 switch=n enabled=y phases=2 Linecode=1P_OH_AL_2/0_Rucina_2

New Line.l(r:p13udm20473-p13ulv10493) Units=km Length=0.00703011 bus1=p13udm20473.1.2 bus2=p13ulv10493.1.2 switch=n enabled=y phases=2 Linecode=1P_OH_AL_2/0_Rucina_2

New Line.l(r:p13udm20473-p13udt4759lv) Units=km Length=0.024015 bus1=p13udt4759lv.1.2 bus2=p13udm20473.1.2 switch=n enabled=y phases=2 Linecode=1P_OH_AL_2/0_Rucina_2

New Line.l(r:p13udm20475-p13ulv102702) Units=km Length=0.00226108 bus1=p13udm20475.1.2 bus2=p13ulv102702.1.2 switch=n enabled=y phases=2 Linecode=1P_OH_AL_4_Periwinkle_2

New Line.l(r:p13udm20475-p13udt4759lv) Units=km Length=0.032935000000000006 bus1=p13udt4759lv.1.2 bus2=p13udm20475.1.2 switch=n enabled=y phases=2 Linecode=1P_OH_AL_4/0_Zuzara_2

New Line.l(r:p13udt4760lv-p13ulv10495) Units=km Length=0.006912500000000001 bus1=p13udt4760lv.1.2 bus2=p13ulv10495.1.2 switch=n enabled=y phases=2 Linecode=1P_OH_AL_2/0_Rucina_2

New Line.l(r:p13udt4761lv-p13ulv10496) Units=km Length=0.00806296 bus1=p13udt4761lv.1.2 bus2=p13ulv10496.1.2 switch=n enabled=y phases=2 Linecode=1P_OH_AL_2/0_Rucina_2

New Line.l(r:p13udt4761lv-p13ulv102700) Units=km Length=0.00773838 bus1=p13udt4761lv.1.2 bus2=p13ulv102700.1.2 switch=n enabled=y phases=2 Linecode=1P_OH_AL_2/0_Rucina_2

New Line.l(r:p13udt4762lv-p13ulv10497) Units=km Length=0.0113201 bus1=p13udt4762lv.1.2 bus2=p13ulv10497.1.2 switch=n enabled=y phases=2 Linecode=1P_UG_AL_1/0_Brenau_2

New Line.l(r:p13udm20505-p13ulv10511) Units=km Length=0.0135682 bus1=p13udm20505.1.2 bus2=p13ulv10511.1.2 switch=n enabled=y phases=2 Linecode=1P_OH_AL_2/0_Rucina_2

New Line.l(r:p13udm20505-p13udt4774lv) Units=km Length=0.0191269 bus1=p13udt4774lv.1.2 bus2=p13udm20505.1.2 switch=n enabled=y phases=2 Linecode=1P_OH_AL_2/0_Rucina_2

New Line.l(r:p13udm20506-p13ulv88771) Units=km Length=0.0274007 bus1=p13udm20506.1.2 bus2=p13ulv88771.1.2 switch=n enabled=y phases=2 Linecode=1P_OH_AL_4/0_Zuzara_2

New Line.l(r:p13udm20506-p13udt4774lv) Units=km Length=0.0191197 bus1=p13udt4774lv.1.2 bus2=p13udm20506.1.2 switch=n enabled=y phases=2 Linecode=1P_OH_AL_2/0_Rucina_2

New Line.l(r:p13udt4777lv-p13ulv10535) Units=km Length=0.007408 bus1=p13udt4777lv.1.2 bus2=p13ulv10535.1.2 switch=n enabled=y phases=2 Linecode=1P_UG_AL_4/0_Sweetbriar_2

New Line.l(r:p13udm20510-p13ulv10514) Units=km Length=0.028985700000000003 bus1=p13udm20510.1.2 bus2=p13ulv10514.1.2 switch=n enabled=y phases=2 Linecode=1P_UG_AL_1/0_Brenau_2

New Line.l(r:p13udm20510-p13udt4777lv) Units=km Length=0.0194328 bus1=p13udt4777lv.1.2 bus2=p13udm20510.1.2 switch=n enabled=y phases=2 Linecode=1P_UG_AL_1/0_Brenau_2

New Line.l(r:p13udm20512-p13ulv102681) Units=km Length=0.0128531 bus1=p13udm20512.1.2 bus2=p13ulv102681.1.2 switch=n enabled=y phases=2 Linecode=1P_UG_AL_1/0_Brenau_2

New Line.l(r:p13udm20512-p13ulv102682) Units=km Length=0.0152912 bus1=p13udm20512.1.2 bus2=p13ulv102682.1.2 switch=n enabled=y phases=2 Linecode=1P_UG_AL_1/0_Brenau_2

New Line.l(r:p13udm20512-p13udt4777lv) Units=km Length=0.00970932 bus1=p13udt4777lv.1.2 bus2=p13udm20512.1.2 switch=n enabled=y phases=2 Linecode=1P_UG_AL_2/0_Converse_2

New Line.l(r:p13udt4783lv-p13ulv102676) Units=km Length=0.012424 bus1=p13udt4783lv.1.2 bus2=p13ulv102676.1.2 switch=n enabled=y phases=2 Linecode=1P_UG_AL_1/0_Brenau_2

New Line.l(r:p13udm20523-p13ulv10522) Units=km Length=0.0136118 bus1=p13udm20523.1.2 bus2=p13ulv10522.1.2 switch=n enabled=y phases=2 Linecode=1P_UG_AL_1/0_Brenau_2

New Line.l(r:p13udm20527-p13ulv102684) Units=km Length=0.0128397 bus1=p13udm20527.1.2 bus2=p13ulv102684.1.2 switch=n enabled=y phases=2 Linecode=1P_UG_AL_2/0_Converse_2

New Line.l(r:p13udm20523-p13udm20527) Units=km Length=0.00970523 bus1=p13udm20523.1.2 bus2=p13udm20527.1.2 switch=n enabled=y phases=2 Linecode=1P_UG_AL_2/0_Converse_2

New Line.l(r:p13udm20523-p13udt4783lv) Units=km Length=0.00970523 bus1=p13udt4783lv.1.2 bus2=p13udm20523.1.2 switch=n enabled=y phases=2 Linecode=1P_UG_AL_4/0_Sweetbriar_2

New Line.l(r:p13udm20524-p13ulv10531) Units=km Length=0.0163118 bus1=p13udm20524.1.2 bus2=p13ulv10531.1.2 switch=n enabled=y phases=2 Linecode=1P_UG_AL_2/0_Converse_2

New Line.l(r:p13udm20525-p13ulv15214) Units=km Length=0.0165606 bus1=p13udm20525.1.2 bus2=p13ulv15214.1.2 switch=n enabled=y phases=2 Linecode=1P_UG_AL_1/0_Brenau_2

New Line.l(r:p13udm20524-p13udm20525) Units=km Length=0.0194105 bus1=p13udm20524.1.2 bus2=p13udm20525.1.2 switch=n enabled=y phases=2 Linecode=1P_UG_AL_1/0_Brenau_2

New Line.l(r:p13udm20524-p13udt4783lv) Units=km Length=0.00970523 bus1=p13udt4783lv.1.2 bus2=p13udm20524.1.2 switch=n enabled=y phases=2 Linecode=1P_UG_AL_4/0_Sweetbriar_2

New Line.l(r:p13udt4785lv-p13ulv10524) Units=km Length=0.00711068 bus1=p13udt4785lv.1.2 bus2=p13ulv10524.1.2 switch=n enabled=y phases=2 Linecode=1P_UG_AL_1/0_Brenau_2

New Line.l(r:p13udm20530-p13ulv88774) Units=km Length=0.0162672 bus1=p13udm20530.1.2 bus2=p13ulv88774.1.2 switch=n enabled=y phases=2 Linecode=1P_UG_AL_1/0_Brenau_2

New Line.l(r:p13udm20530-p13udt4785lv) Units=km Length=0.00969836 bus1=p13udt4785lv.1.2 bus2=p13udm20530.1.2 switch=n enabled=y phases=2 Linecode=1P_UG_AL_1/0_Brenau_2

New Line.l(r:p13udt4786lv-p13ulv10526) Units=km Length=0.0111794 bus1=p13udt4786lv.1.2 bus2=p13ulv10526.1.2 switch=n enabled=y phases=2 Linecode=1P_UG_AL_4/0_Sweetbriar_2

New Line.l(r:p13udm20532-p13ulv10527) Units=km Length=0.0394322 bus1=p13udm20532.1.2 bus2=p13ulv10527.1.2 switch=n enabled=y phases=2 Linecode=1P_UG_AL_1/0_Brenau_2

New Line.l(r:p13udm20532-p13ulv10529) Units=km Length=0.00888077 bus1=p13udm20532.1.2 bus2=p13ulv10529.1.2 switch=n enabled=y phases=2 Linecode=1P_UG_AL_1/0_Brenau_2

New Line.l(r:p13udm20536-p13ulv88777) Units=km Length=0.012055 bus1=p13udm20536.1.2 bus2=p13ulv88777.1.2 switch=n enabled=y phases=2 Linecode=1P_UG_AL_1/0_Brenau_2

New Line.l(r:p13udm20535-p13ulv88776) Units=km Length=0.00988869 bus1=p13udm20535.1.2 bus2=p13ulv88776.1.2 switch=n enabled=y phases=2 Linecode=1P_UG_AL_1/0_Brenau_2

New Line.l(r:p13udm20535-p13udm20536) Units=km Length=0.018589 bus1=p13udm20536.1.2 bus2=p13udm20535.1.2 switch=n enabled=y phases=2 Linecode=1P_UG_AL_1/0_Brenau_2

New Line.l(r:p13udm20532-p13udm20536) Units=km Length=0.00930138 bus1=p13udm20532.1.2 bus2=p13udm20536.1.2 switch=n enabled=y phases=2 Linecode=1P_UG_AL_1/0_Brenau_2

New Line.l(r:p13udm20532-p13udt4787lv) Units=km Length=0.00928724 bus1=p13udt4787lv.1.2 bus2=p13udm20532.1.2 switch=n enabled=y phases=2 Linecode=1P_UG_AL_4/0_Sweetbriar_2

New Line.l(r:p13udm20534-p13ulv10530) Units=km Length=0.00894683 bus1=p13udm20534.1.2 bus2=p13ulv10530.1.2 switch=n enabled=y phases=2 Linecode=1P_UG_AL_1/0_Brenau_2

New Line.l(r:p13udm20537-p13ulv102677) Units=km Length=0.007566690000000001 bus1=p13udm20537.1.2 bus2=p13ulv102677.1.2 switch=n enabled=y phases=2 Linecode=1P_UG_AL_1/0_Brenau_2

New Line.l(r:p13udm20534-p13udm20537) Units=km Length=0.0188978 bus1=p13udm20534.1.2 bus2=p13udm20537.1.2 switch=n enabled=y phases=2 Linecode=1P_UG_AL_1/0_Brenau_2

New Line.l(r:p13udm20534-p13udt4787lv) Units=km Length=0.027897300000000003 bus1=p13udt4787lv.1.2 bus2=p13udm20534.1.2 switch=n enabled=y phases=2 Linecode=1P_UG_AL_1/0_Brenau_2

New Line.l(r:p13udm20544-p13ulv10536) Units=km Length=0.00744179 bus1=p13udm20544.1.2 bus2=p13ulv10536.1.2 switch=n enabled=y phases=2 Linecode=1P_UG_AL_4/0_Sweetbriar_2

New Line.l(r:p13udm20544-p13udt4790lv) Units=km Length=0.00972346 bus1=p13udt4790lv.1.2 bus2=p13udm20544.1.2 switch=n enabled=y phases=2 Linecode=1P_UG_AL_4/0_Sweetbriar_2

New Line.l(r:p13udm20545-p13ulv10537) Units=km Length=0.00751415 bus1=p13udm20545.1.2 bus2=p13ulv10537.1.2 switch=n enabled=y phases=2 Linecode=1P_UG_AL_2/0_Converse_2

New Line.l(r:p13udm20545-p13udt4790lv) Units=km Length=0.00970932 bus1=p13udt4790lv.1.2 bus2=p13udm20545.1.2 switch=n enabled=y phases=2 Linecode=1P_UG_AL_2/0_Converse_2

New Line.l(r:p13udt5043lv-p13ulv11118) Units=km Length=0.00811604 bus1=p13udt5043lv.1.2 bus2=p13ulv11118.1.2 switch=n enabled=y phases=2 Linecode=1P_OH_AL_2/0_Rucina_2

New Line.l(r:p13udm21725-p13ulv102672) Units=km Length=0.0159962 bus1=p13udm21725.1.2 bus2=p13ulv102672.1.2 switch=n enabled=y phases=2 Linecode=1P_OH_AL_2/0_Rucina_2

New Line.l(r:p13udm21724-p13ulv11124) Units=km Length=0.0157492 bus1=p13udm21724.1.2 bus2=p13ulv11124.1.2 switch=n enabled=y phases=2 Linecode=1P_UG_AL_1/0_Brenau_2

New Line.l(r:p13udm21724-p13udm21725) Units=km Length=0.102736 bus1=p13udm21725.1.2 bus2=p13udm21724.1.2 switch=n enabled=y phases=2 Linecode=1P_OH_AL_4/0_Zuzara_2

New Line.l(r:p13udm21725-p13udt5046lv) Units=km Length=0.0668406 bus1=p13udt5046lv.1.2 bus2=p13udm21725.1.2 switch=n enabled=y phases=2 Linecode=1P_OH_AL_4/0_Zuzara_2

New Line.l(r:p13udt5049lv-p13ulv11127) Units=km Length=0.00396313 bus1=p13udt5049lv.1.2 bus2=p13ulv11127.1.2 switch=n enabled=y phases=2 Linecode=1P_OH_AL_4_Periwinkle_2

New Line.l(r:p13udt5050lv-p13ulv11128) Units=km Length=0.011828800000000002 bus1=p13udt5050lv.1.2 bus2=p13ulv11128.1.2 switch=n enabled=y phases=2 Linecode=1P_UG_AL_4/0_Sweetbriar_2

New Line.l(r:p13udt5052lv-p13ulv11130) Units=km Length=0.0129881 bus1=p13udt5052lv.1.2 bus2=p13ulv11130.1.2 switch=n enabled=y phases=2 Linecode=1P_OH_AL_2/0_Rucina_2

New Line.l(r:p13udt5053lv-p13ulv11131) Units=km Length=0.0442607 bus1=p13udt5053lv.1.2 bus2=p13ulv11131.1.2 switch=n enabled=y phases=2 Linecode=1P_OH_AL_4/0_Zuzara_2

New Line.l(r:p13udm21733-p13ulv88775) Units=km Length=0.0136537 bus1=p13udm21733.1.2 bus2=p13ulv88775.1.2 switch=n enabled=y phases=2 Linecode=1P_OH_AL_2/0_Rucina_2

New Line.l(r:p13udm21733-p13udt5053lv) Units=km Length=0.0189459 bus1=p13udt5053lv.1.2 bus2=p13udm21733.1.2 switch=n enabled=y phases=2 Linecode=1P_OH_AL_2/0_Rucina_2

New Line.l(r:p13udt6381lv-p13ulv90461) Units=km Length=0.011172400000000002 bus1=p13udt6381lv.1.2 bus2=p13ulv90461.1.2 switch=n enabled=y phases=2 Linecode=1P_UG_AL_1/0_Brenau_2

New Line.l(r:p13udt6381lv-p13ulv90486) Units=km Length=0.0123451 bus1=p13udt6381lv.1.2 bus2=p13ulv90486.1.2 switch=n enabled=y phases=2 Linecode=1P_UG_AL_1/0_Brenau_2

New Line.l(r:p13udm27465-p13ulv14190) Units=km Length=0.0108652 bus1=p13udm27465.1.2 bus2=p13ulv14190.1.2 switch=n enabled=y phases=2 Linecode=1P_UG_AL_1/0_Brenau_2

New Line.l(r:p13udm27465-p13ulv14221) Units=km Length=0.00833449 bus1=p13udm27465.1.2 bus2=p13ulv14221.1.2 switch=n enabled=y phases=2 Linecode=1P_UG_AL_1/0_Brenau_2

New Line.l(r:p13udm27465-p13udt6381lv) Units=km Length=0.00989879 bus1=p13udt6381lv.1.2 bus2=p13udm27465.1.2 switch=n enabled=y phases=2 Linecode=1P_UG_AL_1/0_Brenau_2

New Line.l(r:p13udm27466-p13ulv14220) Units=km Length=0.0103075 bus1=p13udm27466.1.2 bus2=p13ulv14220.1.2 switch=n enabled=y phases=2 Linecode=1P_UG_AL_2/0_Converse_2

New Line.l(r:p13udm27466-p13udt6381lv) Units=km Length=0.00989637 bus1=p13udt6381lv.1.2 bus2=p13udm27466.1.2 switch=n enabled=y phases=2 Linecode=1P_UG_AL_2/0_Converse_2

New Line.l(r:p13udt6382lv-p13ulv14194) Units=km Length=0.0106005 bus1=p13udt6382lv.1.2 bus2=p13ulv14194.1.2 switch=n enabled=y phases=2 Linecode=1P_UG_AL_1/0_Brenau_2

New Line.l(r:p13udm27471-p13ulv14192) Units=km Length=0.0150486 bus1=p13udm27471.1.2 bus2=p13ulv14192.1.2 switch=n enabled=y phases=2 Linecode=1P_UG_AL_1/0_Brenau_2

New Line.l(r:p13udm27471-p13ulv14193) Units=km Length=0.00919115 bus1=p13udm27471.1.2 bus2=p13ulv14193.1.2 switch=n enabled=y phases=2 Linecode=1P_UG_AL_1/0_Brenau_2

New Line.l(r:p13udm27470-p13ulv14191) Units=km Length=0.0231796 bus1=p13udm27470.1.2 bus2=p13ulv14191.1.2 switch=n enabled=y phases=2 Linecode=1P_UG_AL_1/0_Brenau_2

New Line.l(r:p13udm27470-p13ulv90482) Units=km Length=0.00446287 bus1=p13udm27470.1.2 bus2=p13ulv90482.1.2 switch=n enabled=y phases=2 Linecode=1P_UG_AL_1/0_Brenau_2

New Line.l(r:p13udm27470-p13udm27471) Units=km Length=0.00964405 bus1=p13udm27471.1.2 bus2=p13udm27470.1.2 switch=n enabled=y phases=2 Linecode=1P_UG_AL_1/0_Brenau_2

New Line.l(r:p13udm27471-p13udt6382lv) Units=km Length=0.00964405 bus1=p13udt6382lv.1.2 bus2=p13udm27471.1.2 switch=n enabled=y phases=2 Linecode=1P_UG_AL_4/0_Sweetbriar_2

New Line.l(r:p13udm27477-p13ulv90495) Units=km Length=0.00735367 bus1=p13udm27477.1.2 bus2=p13ulv90495.1.2 switch=n enabled=y phases=2 Linecode=1P_UG_AL_1/0_Brenau_2

New Line.l(r:p13udm27474-p13ulv14195) Units=km Length=0.00969116 bus1=p13udm27474.1.2 bus2=p13ulv14195.1.2 switch=n enabled=y phases=2 Linecode=1P_UG_AL_1/0_Brenau_2

New Line.l(r:p13udm27475-p13ulv14197) Units=km Length=0.00898094 bus1=p13udm27475.1.2 bus2=p13ulv14197.1.2 switch=n enabled=y phases=2 Linecode=1P_UG_AL_1/0_Brenau_2

New Line.l(r:p13udm27474-p13udm27475) Units=km Length=0.00908861 bus1=p13udm27474.1.2 bus2=p13udm27475.1.2 switch=n enabled=y phases=2 Linecode=1P_UG_AL_1/0_Brenau_2

New Line.l(r:p13udm27474-p13udm27477) Units=km Length=0.00907505 bus1=p13udm27477.1.2 bus2=p13udm27474.1.2 switch=n enabled=y phases=2 Linecode=1P_UG_AL_1/0_Brenau_2

New Line.l(r:p13udm27477-p13udt6382lv) Units=km Length=0.00908861 bus1=p13udt6382lv.1.2 bus2=p13udm27477.1.2 switch=n enabled=y phases=2 Linecode=1P_UG_AL_2/0_Converse_2

New Line.l(r:p13udt6383lv-p13ulv90522) Units=km Length=0.0354682 bus1=p13udt6383lv.1.2 bus2=p13ulv90522.1.2 switch=n enabled=y phases=2 Linecode=1P_UG_AL_1/0_Brenau_2

New Line.l(r:p13udt6383lv-p13ulv90525) Units=km Length=0.00924431 bus1=p13udt6383lv.1.2 bus2=p13ulv90525.1.2 switch=n enabled=y phases=2 Linecode=1P_UG_AL_1/0_Brenau_2

New Line.l(r:p13udt6383lv-p13ulv90534) Units=km Length=0.040378000000000004 bus1=p13udt6383lv.1.2 bus2=p13ulv90534.1.2 switch=n enabled=y phases=2 Linecode=1P_UG_AL_1/0_Brenau_2

New Line.l(r:p13udm27478-p13ulv14196) Units=km Length=0.00838215 bus1=p13udm27478.1.2 bus2=p13ulv14196.1.2 switch=n enabled=y phases=2 Linecode=1P_UG_AL_1/0_Brenau_2

New Line.l(r:p13udm27478-p13ulv90508) Units=km Length=0.0169604 bus1=p13udm27478.1.2 bus2=p13ulv90508.1.2 switch=n enabled=y phases=2 Linecode=1P_UG_AL_1/0_Brenau_2

New Line.l(r:p13udm27478-p13ulv90515) Units=km Length=0.0113191 bus1=p13udm27478.1.2 bus2=p13ulv90515.1.2 switch=n enabled=y phases=2 Linecode=1P_UG_AL_1/0_Brenau_2

New Line.l(r:p13udm27478-p13udt6383lv) Units=km Length=0.00960615 bus1=p13udt6383lv.1.2 bus2=p13udm27478.1.2 switch=n enabled=y phases=2 Linecode=1P_UG_AL_2/0_Converse_2

New Line.l(r:p13udm27479-p13ulv14199) Units=km Length=0.00857336 bus1=p13udm27479.1.2 bus2=p13ulv14199.1.2 switch=n enabled=y phases=2 Linecode=1P_UG_AL_1/0_Brenau_2

New Line.l(r:p13udm27480-p13ulv14823) Units=km Length=0.00734444 bus1=p13udm27480.1.2 bus2=p13ulv14823.1.2 switch=n enabled=y phases=2 Linecode=1P_UG_AL_1/0_Brenau_2

New Line.l(r:p13udm27479-p13udm27480) Units=km Length=0.019724000000000002 bus1=p13udm27479.1.2 bus2=p13udm27480.1.2 switch=n enabled=y phases=2 Linecode=1P_UG_AL_1/0_Brenau_2

New Line.l(r:p13udm27479-p13udt6383lv) Units=km Length=0.0098532 bus1=p13udt6383lv.1.2 bus2=p13udm27479.1.2 switch=n enabled=y phases=2 Linecode=1P_UG_AL_1/0_Brenau_2

New Line.l(r:p13udt6384lv-p13ulv14210) Units=km Length=0.0120213 bus1=p13udt6384lv.1.2 bus2=p13ulv14210.1.2 switch=n enabled=y phases=2 Linecode=1P_UG_AL_1/0_Brenau_2

New Line.l(r:p13udt6384lv-p13ulv88652) Units=km Length=0.034054600000000004 bus1=p13udt6384lv.1.2 bus2=p13ulv88652.1.2 switch=n enabled=y phases=2 Linecode=1P_UG_AL_1/0_Brenau_2

New Line.l(r:p13udm27487-p13ulv14209) Units=km Length=0.0124523 bus1=p13udm27487.1.2 bus2=p13ulv14209.1.2 switch=n enabled=y phases=2 Linecode=1P_UG_AL_1/0_Brenau_2

New Line.l(r:p13udm27490-p13ulv88618) Units=km Length=0.007994 bus1=p13udm27490.1.2 bus2=p13ulv88618.1.2 switch=n enabled=y phases=2 Linecode=1P_UG_AL_1/0_Brenau_2

New Line.l(r:p13udm27490-p13ulv88623) Units=km Length=0.00388232 bus1=p13udm27490.1.2 bus2=p13ulv88623.1.2 switch=n enabled=y phases=2 Linecode=1P_UG_AL_1/0_Brenau_2

New Line.l(r:p13udm27494-p13ulv90545) Units=km Length=0.00656544 bus1=p13udm27494.1.2 bus2=p13ulv90545.1.2 switch=n enabled=y phases=2 Linecode=1P_UG_AL_1/0_Brenau_2

New Line.l(r:p13udm27486-p13ulv14198) Units=km Length=0.014304800000000001 bus1=p13udm27486.1.2 bus2=p13ulv14198.1.2 switch=n enabled=y phases=2 Linecode=1P_UG_AL_1/0_Brenau_2

New Line.l(r:p13udm27486-p13udm27494) Units=km Length=0.00986199 bus1=p13udm27494.1.2 bus2=p13udm27486.1.2 switch=n enabled=y phases=2 Linecode=1P_UG_AL_1/0_Brenau_2

New Line.l(r:p13udm27490-p13udm27494) Units=km Length=0.0295772 bus1=p13udm27490.1.2 bus2=p13udm27494.1.2 switch=n enabled=y phases=2 Linecode=1P_UG_AL_1/0_Brenau_2

New Line.l(r:p13udm27487-p13udm27490) Units=km Length=0.00986199 bus1=p13udm27487.1.2 bus2=p13udm27490.1.2 switch=n enabled=y phases=2 Linecode=1P_UG_AL_4/0_Sweetbriar_2

New Line.l(r:p13udm27487-p13udt6384lv) Units=km Length=0.00940972 bus1=p13udt6384lv.1.2 bus2=p13udm27487.1.2 switch=n enabled=y phases=2 Linecode=1P_UG_AL_4/0_Sweetbriar_2

New Line.l(r:p13udm27489-p13ulv14211) Units=km Length=0.0133947 bus1=p13udm27489.1.2 bus2=p13ulv14211.1.2 switch=n enabled=y phases=2 Linecode=1P_UG_AL_1/0_Brenau_2

New Line.l(r:p13udm27489-p13ulv88626) Units=km Length=0.00930809 bus1=p13udm27489.1.2 bus2=p13ulv88626.1.2 switch=n enabled=y phases=2 Linecode=1P_UG_AL_1/0_Brenau_2

New Line.l(r:p13udm27489-p13udt6384lv) Units=km Length=0.00941544 bus1=p13udt6384lv.1.2 bus2=p13udm27489.1.2 switch=n enabled=y phases=2 Linecode=1P_UG_AL_1/0_Brenau_2

New Line.l(r:p13udt6385lv-p13ulv14216) Units=km Length=0.00975205 bus1=p13udt6385lv.1.2 bus2=p13ulv14216.1.2 switch=n enabled=y phases=2 Linecode=1P_UG_AL_1/0_Brenau_2

New Line.l(r:p13udm27495-p13ulv14200) Units=km Length=0.00606927 bus1=p13udm27495.1.2 bus2=p13ulv14200.1.2 switch=n enabled=y phases=2 Linecode=1P_UG_AL_1/0_Brenau_2

New Line.l(r:p13udm27495-p13udt6385lv) Units=km Length=0.00942364 bus1=p13udt6385lv.1.2 bus2=p13udm27495.1.2 switch=n enabled=y phases=2 Linecode=1P_UG_AL_1/0_Brenau_2

New Line.l(r:p13udm27498-p13ulv88632) Units=km Length=0.009258820000000001 bus1=p13udm27498.1.2 bus2=p13ulv88632.1.2 switch=n enabled=y phases=2 Linecode=1P_UG_AL_1/0_Brenau_2

New Line.l(r:p13udm27496-p13ulv14212) Units=km Length=0.0129962 bus1=p13udm27496.1.2 bus2=p13ulv14212.1.2 switch=n enabled=y phases=2 Linecode=1P_UG_AL_2/0_Converse_2

New Line.l(r:p13udm27496-p13udm27498) Units=km Length=0.00941544 bus1=p13udm27498.1.2 bus2=p13udm27496.1.2 switch=n enabled=y phases=2 Linecode=1P_UG_AL_2/0_Converse_2

New Line.l(r:p13udm27498-p13udt6385lv) Units=km Length=0.00940972 bus1=p13udt6385lv.1.2 bus2=p13udm27498.1.2 switch=n enabled=y phases=2 Linecode=1P_UG_AL_4/0_Sweetbriar_2

New Line.l(r:p13udt6386lv-p13ulv14204) Units=km Length=0.015542300000000002 bus1=p13udt6386lv.1.2 bus2=p13ulv14204.1.2 switch=n enabled=y phases=2 Linecode=1P_UG_AL_1/0_Brenau_2

New Line.l(r:p13udt6386lv-p13ulv14716) Units=km Length=0.0108774 bus1=p13udt6386lv.1.2 bus2=p13ulv14716.1.2 switch=n enabled=y phases=2 Linecode=1P_UG_AL_1/0_Brenau_2

New Line.l(r:p13udm27501-p13ulv14203) Units=km Length=0.013307900000000001 bus1=p13udm27501.1.2 bus2=p13ulv14203.1.2 switch=n enabled=y phases=2 Linecode=1P_UG_AL_1/0_Brenau_2

New Line.l(r:p13udm27501-p13ulv14715) Units=km Length=0.0109547 bus1=p13udm27501.1.2 bus2=p13ulv14715.1.2 switch=n enabled=y phases=2 Linecode=1P_UG_AL_1/0_Brenau_2

New Line.l(r:p13udm27499-p13ulv14201) Units=km Length=0.0134391 bus1=p13udm27499.1.2 bus2=p13ulv14201.1.2 switch=n enabled=y phases=2 Linecode=1P_UG_AL_1/0_Brenau_2

New Line.l(r:p13udm27500-p13ulv14202) Units=km Length=0.0131173 bus1=p13udm27500.1.2 bus2=p13ulv14202.1.2 switch=n enabled=y phases=2 Linecode=1P_UG_AL_1/0_Brenau_2

New Line.l(r:p13udm27499-p13udm27500) Units=km Length=0.00904093 bus1=p13udm27499.1.2 bus2=p13udm27500.1.2 switch=n enabled=y phases=2 Linecode=1P_UG_AL_1/0_Brenau_2

New Line.l(r:p13udm27499-p13udm27501) Units=km Length=0.0180819 bus1=p13udm27501.1.2 bus2=p13udm27499.1.2 switch=n enabled=y phases=2 Linecode=1P_UG_AL_1/0_Brenau_2

New Line.l(r:p13udm27501-p13udt6386lv) Units=km Length=0.00904093 bus1=p13udt6386lv.1.2 bus2=p13udm27501.1.2 switch=n enabled=y phases=2 Linecode=1P_UG_AL_4/0_Sweetbriar_2

New Line.l(r:p13udm27503-p13ulv14205) Units=km Length=0.0159829 bus1=p13udm27503.1.2 bus2=p13ulv14205.1.2 switch=n enabled=y phases=2 Linecode=1P_UG_AL_1/0_Brenau_2

New Line.l(r:p13udm27503-p13ulv88640) Units=km Length=0.0111138 bus1=p13udm27503.1.2 bus2=p13ulv88640.1.2 switch=n enabled=y phases=2 Linecode=1P_UG_AL_1/0_Brenau_2

New Line.l(r:p13udm27503-p13udt6386lv) Units=km Length=0.00904093 bus1=p13udt6386lv.1.2 bus2=p13udm27503.1.2 switch=n enabled=y phases=2 Linecode=1P_UG_AL_1/0_Brenau_2

New Line.l(r:p13udt6387lv-p13ulv14206) Units=km Length=0.014622600000000001 bus1=p13udt6387lv.1.2 bus2=p13ulv14206.1.2 switch=n enabled=y phases=2 Linecode=1P_UG_AL_1/0_Brenau_2

New Line.l(r:p13udt6387lv-p13ulv88636) Units=km Length=0.0100622 bus1=p13udt6387lv.1.2 bus2=p13ulv88636.1.2 switch=n enabled=y phases=2 Linecode=1P_UG_AL_1/0_Brenau_2

New Line.l(r:p13udm27508-p13ulv88627) Units=km Length=0.00736549 bus1=p13udm27508.1.2 bus2=p13ulv88627.1.2 switch=n enabled=y phases=2 Linecode=1P_UG_AL_1/0_Brenau_2

New Line.l(r:p13udm27508-p13udt6387lv) Units=km Length=0.009049020000000001 bus1=p13udt6387lv.1.2 bus2=p13udm27508.1.2 switch=n enabled=y phases=2 Linecode=1P_UG_AL_1/0_Brenau_2

New Line.l(r:p13udt6388lv-p13ulv14207) Units=km Length=0.0174716 bus1=p13udt6388lv.1.2 bus2=p13ulv14207.1.2 switch=n enabled=y phases=2 Linecode=1P_UG_AL_1/0_Brenau_2

New Line.l(r:p13udt6388lv-p13ulv90527) Units=km Length=0.0107349 bus1=p13udt6388lv.1.2 bus2=p13ulv90527.1.2 switch=n enabled=y phases=2 Linecode=1P_UG_AL_1/0_Brenau_2

New Line.l(r:p13udm27512-p13ulv14723) Units=km Length=0.0115451 bus1=p13udm27512.1.2 bus2=p13ulv14723.1.2 switch=n enabled=y phases=2 Linecode=1P_UG_AL_1/0_Brenau_2

New Line.l(r:p13udm27511-p13ulv14722) Units=km Length=0.0109524 bus1=p13udm27511.1.2 bus2=p13ulv14722.1.2 switch=n enabled=y phases=2 Linecode=1P_UG_AL_1/0_Brenau_2

New Line.l(r:p13udm27511-p13ulv90516) Units=km Length=0.0159722 bus1=p13udm27511.1.2 bus2=p13ulv90516.1.2 switch=n enabled=y phases=2 Linecode=1P_UG_AL_2/0_Converse_2

New Line.l(r:p13udm27511-p13udm27512) Units=km Length=0.00901504 bus1=p13udm27512.1.2 bus2=p13udm27511.1.2 switch=n enabled=y phases=2 Linecode=1P_UG_AL_4/0_Sweetbriar_2

New Line.l(r:p13udm27512-p13udt6388lv) Units=km Length=0.00902319 bus1=p13udt6388lv.1.2 bus2=p13udm27512.1.2 switch=n enabled=y phases=2 Linecode=1P_UG_AL_4/0_Sweetbriar_2

New Line.l(r:p13udm27513-p13ulv14724) Units=km Length=0.0104328 bus1=p13udm27513.1.2 bus2=p13ulv14724.1.2 switch=n enabled=y phases=2 Linecode=1P_UG_AL_1/0_Brenau_2

New Line.l(r:p13udm27514-p13ulv90512) Units=km Length=0.007619880000000001 bus1=p13udm27514.1.2 bus2=p13ulv90512.1.2 switch=n enabled=y phases=2 Linecode=1P_UG_AL_1/0_Brenau_2

New Line.l(r:p13udm27513-p13udm27514) Units=km Length=0.0279289 bus1=p13udm27513.1.2 bus2=p13udm27514.1.2 switch=n enabled=y phases=2 Linecode=1P_UG_AL_1/0_Brenau_2

New Line.l(r:p13udm27513-p13udt6388lv) Units=km Length=0.0180359 bus1=p13udt6388lv.1.2 bus2=p13udm27513.1.2 switch=n enabled=y phases=2 Linecode=1P_UG_AL_1/0_Brenau_2

New Line.l(r:p13udt6389lv-p13ulv90494) Units=km Length=0.00934591 bus1=p13udt6389lv.1.2 bus2=p13ulv90494.1.2 switch=n enabled=y phases=2 Linecode=1P_UG_AL_1/0_Brenau_2

New Line.l(r:p13udt6389lv-p13ulv90507) Units=km Length=0.0241868 bus1=p13udt6389lv.1.2 bus2=p13ulv90507.1.2 switch=n enabled=y phases=2 Linecode=1P_UG_AL_1/0_Brenau_2

New Line.l(r:p13udm27517-p13ulv14208) Units=km Length=0.0103078 bus1=p13udm27517.1.2 bus2=p13ulv14208.1.2 switch=n enabled=y phases=2 Linecode=1P_UG_AL_1/0_Brenau_2

New Line.l(r:p13udm27517-p13ulv14219) Units=km Length=0.007551540000000001 bus1=p13udm27517.1.2 bus2=p13ulv14219.1.2 switch=n enabled=y phases=2 Linecode=1P_UG_AL_1/0_Brenau_2

New Line.l(r:p13udm27517-p13udt6389lv) Units=km Length=0.00989061 bus1=p13udt6389lv.1.2 bus2=p13udm27517.1.2 switch=n enabled=y phases=2 Linecode=1P_UG_AL_1/0_Brenau_2

New Line.l(r:p13udm27519-p13ulv90483) Units=km Length=0.00778689 bus1=p13udm27519.1.2 bus2=p13ulv90483.1.2 switch=n enabled=y phases=2 Linecode=1P_UG_AL_2/0_Converse_2

New Line.l(r:p13udm27521-p13ulv90501) Units=km Length=0.0116286 bus1=p13udm27521.1.2 bus2=p13ulv90501.1.2 switch=n enabled=y phases=2 Linecode=1P_UG_AL_1/0_Brenau_2

New Line.l(r:p13udm27519-p13udm27521) Units=km Length=0.00989061 bus1=p13udm27519.1.2 bus2=p13udm27521.1.2 switch=n enabled=y phases=2 Linecode=1P_UG_AL_1/0_Brenau_2

New Line.l(r:p13udm27519-p13udt6389lv) Units=km Length=0.00989061 bus1=p13udt6389lv.1.2 bus2=p13udm27519.1.2 switch=n enabled=y phases=2 Linecode=1P_UG_AL_4/0_Sweetbriar_2

New Line.l(r:p13udm27523-p13ulv14213) Units=km Length=0.00734567 bus1=p13udm27523.1.2 bus2=p13ulv14213.1.2 switch=n enabled=y phases=2 Linecode=1P_UG_AL_2/0_Converse_2

New Line.l(r:p13udm27526-p13ulv88662) Units=km Length=0.0221434 bus1=p13udm27526.1.2 bus2=p13ulv88662.1.2 switch=n enabled=y phases=2 Linecode=1P_UG_AL_1/0_Brenau_2

New Line.l(r:p13udm27523-p13udm27526) Units=km Length=0.0287501 bus1=p13udm27523.1.2 bus2=p13udm27526.1.2 switch=n enabled=y phases=2 Linecode=1P_UG_AL_1/0_Brenau_2

New Line.l(r:p13udm27523-p13udt6390lv) Units=km Length=0.00957969 bus1=p13udt6390lv.1.2 bus2=p13udm27523.1.2 switch=n enabled=y phases=2 Linecode=1P_UG_AL_4/0_Sweetbriar_2

New Line.l(r:p13udm27524-p13ulv14214) Units=km Length=0.0143939 bus1=p13udm27524.1.2 bus2=p13ulv14214.1.2 switch=n enabled=y phases=2 Linecode=1P_UG_AL_2/0_Converse_2

New Line.l(r:p13udm27524-p13ulv14712) Units=km Length=0.0104515 bus1=p13udm27524.1.2 bus2=p13ulv14712.1.2 switch=n enabled=y phases=2 Linecode=1P_UG_AL_1/0_Brenau_2

New Line.l(r:p13udm27524-p13udt6390lv) Units=km Length=0.05256460000000001 bus1=p13udt6390lv.1.2 bus2=p13udm27524.1.2 switch=n enabled=y phases=2 Linecode=1P_UG_AL_4/0_Sweetbriar_2

New Line.l(r:p13udm27528-p13ulv14218) Units=km Length=0.0141723 bus1=p13udm27528.1.2 bus2=p13ulv14218.1.2 switch=n enabled=y phases=2 Linecode=1P_UG_AL_1/0_Brenau_2

New Line.l(r:p13udm27528-p13ulv14713) Units=km Length=0.0115543 bus1=p13udm27528.1.2 bus2=p13ulv14713.1.2 switch=n enabled=y phases=2 Linecode=1P_UG_AL_1/0_Brenau_2

New Line.l(r:p13udm27527-p13ulv14217) Units=km Length=0.0138505 bus1=p13udm27527.1.2 bus2=p13ulv14217.1.2 switch=n enabled=y phases=2 Linecode=1P_UG_AL_1/0_Brenau_2

New Line.l(r:p13udm27527-p13ulv88675) Units=km Length=0.011352400000000002 bus1=p13udm27527.1.2 bus2=p13ulv88675.1.2 switch=n enabled=y phases=2 Linecode=1P_UG_AL_1/0_Brenau_2

New Line.l(r:p13udm27527-p13udm27528) Units=km Length=0.00927876 bus1=p13udm27528.1.2 bus2=p13udm27527.1.2 switch=n enabled=y phases=2 Linecode=1P_UG_AL_2/0_Converse_2

New Line.l(r:p13udm27528-p13udt6391lv) Units=km Length=0.00927623 bus1=p13udt6391lv.1.2 bus2=p13udm27528.1.2 switch=n enabled=y phases=2 Linecode=1P_UG_AL_4/0_Sweetbriar_2

New Line.l(r:p13udm27531-p13ulv88693) Units=km Length=0.00821702 bus1=p13udm27531.1.2 bus2=p13ulv88693.1.2 switch=n enabled=y phases=2 Linecode=1P_UG_AL_1/0_Brenau_2

New Line.l(r:p13udm27531-p13udt6391lv) Units=km Length=0.0466248 bus1=p13udt6391lv.1.2 bus2=p13udm27531.1.2 switch=n enabled=y phases=2 Linecode=1P_UG_AL_1/0_Brenau_2

New Line.l(r:p13udt6392lv-p13ulv90414) Units=km Length=0.013452800000000001 bus1=p13udt6392lv.1.2 bus2=p13ulv90414.1.2 switch=n enabled=y phases=2 Linecode=1P_UG_AL_1/0_Brenau_2

New Line.l(r:p13udm27532-p13ulv14222) Units=km Length=0.0107466 bus1=p13udm27532.1.2 bus2=p13ulv14222.1.2 switch=n enabled=y phases=2 Linecode=1P_UG_AL_1/0_Brenau_2

New Line.l(r:p13udm27532-p13udt6392lv) Units=km Length=0.00956294 bus1=p13udt6392lv.1.2 bus2=p13udm27532.1.2 switch=n enabled=y phases=2 Linecode=1P_UG_AL_1/0_Brenau_2

New Line.l(r:p13udm27534-p13ulv90437) Units=km Length=0.0127641 bus1=p13udm27534.1.2 bus2=p13ulv90437.1.2 switch=n enabled=y phases=2 Linecode=1P_UG_AL_1/0_Brenau_2

New Line.l(r:p13udm27534-p13ulv90443) Units=km Length=0.0340207 bus1=p13udm27534.1.2 bus2=p13ulv90443.1.2 switch=n enabled=y phases=2 Linecode=1P_UG_AL_1/0_Brenau_2

New Line.l(r:p13udm27534-p13udt6392lv) Units=km Length=0.009571480000000002 bus1=p13udt6392lv.1.2 bus2=p13udm27534.1.2 switch=n enabled=y phases=2 Linecode=1P_UG_AL_2/0_Converse_2

New Line.l(r:p13udt6393lv-p13ulv14224) Units=km Length=0.014259 bus1=p13udt6393lv.1.2 bus2=p13ulv14224.1.2 switch=n enabled=y phases=2 Linecode=1P_UG_AL_1/0_Brenau_2

New Line.l(r:p13udt6393lv-p13ulv90394) Units=km Length=0.0132039 bus1=p13udt6393lv.1.2 bus2=p13ulv90394.1.2 switch=n enabled=y phases=2 Linecode=1P_UG_AL_1/0_Brenau_2

New Line.l(r:p13udm27536-p13ulv14223) Units=km Length=0.0133466 bus1=p13udm27536.1.2 bus2=p13ulv14223.1.2 switch=n enabled=y phases=2 Linecode=1P_UG_AL_1/0_Brenau_2

New Line.l(r:p13udm27536-p13ulv14231) Units=km Length=0.0134967 bus1=p13udm27536.1.2 bus2=p13ulv14231.1.2 switch=n enabled=y phases=2 Linecode=1P_UG_AL_1/0_Brenau_2

New Line.l(r:p13udm27536-p13udt6393lv) Units=km Length=0.009571480000000002 bus1=p13udt6393lv.1.2 bus2=p13udm27536.1.2 switch=n enabled=y phases=2 Linecode=1P_UG_AL_4/0_Sweetbriar_2

New Line.l(r:p13udm27542-p13ulv90408) Units=km Length=0.012914 bus1=p13udm27542.1.2 bus2=p13ulv90408.1.2 switch=n enabled=y phases=2 Linecode=1P_UG_AL_1/0_Brenau_2

New Line.l(r:p13udm27538-p13ulv14225) Units=km Length=0.0115127 bus1=p13udm27538.1.2 bus2=p13ulv14225.1.2 switch=n enabled=y phases=2 Linecode=1P_UG_AL_1/0_Brenau_2

New Line.l(r:p13udm27538-p13ulv90387) Units=km Length=0.0132684 bus1=p13udm27538.1.2 bus2=p13ulv90387.1.2 switch=n enabled=y phases=2 Linecode=1P_UG_AL_1/0_Brenau_2

New Line.l(r:p13udm27538-p13udm27542) Units=km Length=0.00956294 bus1=p13udm27542.1.2 bus2=p13udm27538.1.2 switch=n enabled=y phases=2 Linecode=1P_UG_AL_1/0_Brenau_2

New Line.l(r:p13udm27542-p13udt6393lv) Units=km Length=0.009571480000000002 bus1=p13udt6393lv.1.2 bus2=p13udm27542.1.2 switch=n enabled=y phases=2 Linecode=1P_UG_AL_2/0_Converse_2

New Line.l(r:p13udt6394lv-p13ulv14753) Units=km Length=0.016950500000000004 bus1=p13udt6394lv.1.2 bus2=p13ulv14753.1.2 switch=n enabled=y phases=2 Linecode=1P_OH_AL_2/0_Rucina_2

New Line.l(r:p13udm27543-p13ulv14226) Units=km Length=0.0122595 bus1=p13udm27543.1.2 bus2=p13ulv14226.1.2 switch=n enabled=y phases=2 Linecode=1P_OH_AL_2/0_Rucina_2

New Line.l(r:p13udm27543-p13udt6394lv) Units=km Length=0.0186115 bus1=p13udt6394lv.1.2 bus2=p13udm27543.1.2 switch=n enabled=y phases=2 Linecode=1P_OH_AL_2/0_Rucina_2

New Line.l(r:p13udm27545-p13ulv90381) Units=km Length=0.0152903 bus1=p13udm27545.1.2 bus2=p13ulv90381.1.2 switch=n enabled=y phases=2 Linecode=1P_OH_AL_2/0_Rucina_2

New Line.l(r:p13udm27545-p13udt6394lv) Units=km Length=0.0186048 bus1=p13udt6394lv.1.2 bus2=p13udm27545.1.2 switch=n enabled=y phases=2 Linecode=1P_OH_AL_2/0_Rucina_2

New Line.l(r:p13udt6395lv-p13ulv14755) Units=km Length=0.00894457 bus1=p13udt6395lv.1.2 bus2=p13ulv14755.1.2 switch=n enabled=y phases=2 Linecode=1P_UG_AL_1/0_Brenau_2

New Line.l(r:p13udm27546-p13ulv14227) Units=km Length=0.0128715 bus1=p13udm27546.1.2 bus2=p13ulv14227.1.2 switch=n enabled=y phases=2 Linecode=1P_UG_AL_1/0_Brenau_2

New Line.l(r:p13udm27546-p13udt6395lv) Units=km Length=0.009866810000000002 bus1=p13udt6395lv.1.2 bus2=p13udm27546.1.2 switch=n enabled=y phases=2 Linecode=1P_UG_AL_1/0_Brenau_2

New Line.l(r:p13udm27549-p13ulv14765) Units=km Length=0.00984001 bus1=p13udm27549.1.2 bus2=p13ulv14765.1.2 switch=n enabled=y phases=2 Linecode=1P_UG_AL_1/0_Brenau_2

New Line.l(r:p13udm27548-p13ulv14764) Units=km Length=0.0098485 bus1=p13udm27548.1.2 bus2=p13ulv14764.1.2 switch=n enabled=y phases=2 Linecode=1P_UG_AL_1/0_Brenau_2

New Line.l(r:p13udm27548-p13udm27549) Units=km Length=0.009866810000000002 bus1=p13udm27549.1.2 bus2=p13udm27548.1.2 switch=n enabled=y phases=2 Linecode=1P_UG_AL_1/0_Brenau_2

New Line.l(r:p13udm27549-p13udt6395lv) Units=km Length=0.00987357 bus1=p13udt6395lv.1.2 bus2=p13udm27549.1.2 switch=n enabled=y phases=2 Linecode=1P_UG_AL_2/0_Converse_2

New Line.l(r:p13udt6397lv-p13ulv90446) Units=km Length=0.00787721 bus1=p13udt6397lv.1.2 bus2=p13ulv90446.1.2 switch=n enabled=y phases=2 Linecode=1P_UG_AL_1/0_Brenau_2

New Line.l(r:p13udm27551-p13ulv14229) Units=km Length=0.016293200000000004 bus1=p13udm27551.1.2 bus2=p13ulv14229.1.2 switch=n enabled=y phases=2 Linecode=1P_UG_AL_1/0_Brenau_2

New Line.l(r:p13udm27551-p13ulv14832) Units=km Length=0.0112006 bus1=p13udm27551.1.2 bus2=p13ulv14832.1.2 switch=n enabled=y phases=2 Linecode=1P_UG_AL_1/0_Brenau_2

New Line.l(r:p13udm27553-p13ulv14831) Units=km Length=0.007969 bus1=p13udm27553.1.2 bus2=p13ulv14831.1.2 switch=n enabled=y phases=2 Linecode=1P_UG_AL_1/0_Brenau_2

New Line.l(r:p13udm27552-p13ulv14830) Units=km Length=0.00903703 bus1=p13udm27552.1.2 bus2=p13ulv14830.1.2 switch=n enabled=y phases=2 Linecode=1P_UG_AL_1/0_Brenau_2

New Line.l(r:p13udm27552-p13ulv90420) Units=km Length=0.00974891 bus1=p13udm27552.1.2 bus2=p13ulv90420.1.2 switch=n enabled=y phases=2 Linecode=1P_UG_AL_1/0_Brenau_2

New Line.l(r:p13udm27552-p13udm27553) Units=km Length=0.019606500000000002 bus1=p13udm27553.1.2 bus2=p13udm27552.1.2 switch=n enabled=y phases=2 Linecode=1P_UG_AL_1/0_Brenau_2

New Line.l(r:p13udm27551-p13udm27553) Units=km Length=0.009798050000000003 bus1=p13udm27551.1.2 bus2=p13udm27553.1.2 switch=n enabled=y phases=2 Linecode=1P_UG_AL_2/0_Converse_2

New Line.l(r:p13udm27551-p13udt6397lv) Units=km Length=0.00980326 bus1=p13udt6397lv.1.2 bus2=p13udm27551.1.2 switch=n enabled=y phases=2 Linecode=1P_UG_AL_4/0_Sweetbriar_2

New Line.l(r:p13udm27555-p13ulv14833) Units=km Length=0.012607900000000002 bus1=p13udm27555.1.2 bus2=p13ulv14833.1.2 switch=n enabled=y phases=2 Linecode=1P_UG_AL_1/0_Brenau_2

New Line.l(r:p13udm27560-p13ulv90466) Units=km Length=0.0061728 bus1=p13udm27560.1.2 bus2=p13ulv90466.1.2 switch=n enabled=y phases=2 Linecode=1P_UG_AL_1/0_Brenau_2

New Line.l(r:p13udm27556-p13ulv14834) Units=km Length=0.005095660000000001 bus1=p13udm27556.1.2 bus2=p13ulv14834.1.2 switch=n enabled=y phases=2 Linecode=1P_UG_AL_1/0_Brenau_2

New Line.l(r:p13udm27556-p13udm27560) Units=km Length=0.0192934 bus1=p13udm27560.1.2 bus2=p13udm27556.1.2 switch=n enabled=y phases=2 Linecode=1P_UG_AL_1/0_Brenau_2

New Line.l(r:p13udm27558-p13ulv90439) Units=km Length=0.0120678 bus1=p13udm27558.1.2 bus2=p13ulv90439.1.2 switch=n enabled=y phases=2 Linecode=1P_UG_AL_1/0_Brenau_2

New Line.l(r:p13udm27558-p13udm27560) Units=km Length=0.021297200000000002 bus1=p13udm27560.1.2 bus2=p13udm27558.1.2 switch=n enabled=y phases=2 Linecode=1P_UG_AL_1/0_Brenau_2

New Line.l(r:p13udm27555-p13udm27560) Units=km Length=0.0197563 bus1=p13udm27555.1.2 bus2=p13udm27560.1.2 switch=n enabled=y phases=2 Linecode=1P_UG_AL_2/0_Converse_2

New Line.l(r:p13udm27555-p13udt6397lv) Units=km Length=0.00981179 bus1=p13udt6397lv.1.2 bus2=p13udm27555.1.2 switch=n enabled=y phases=2 Linecode=1P_UG_AL_4/0_Sweetbriar_2

New Line.l(r:p13udt6398lv-p13ulv14234) Units=km Length=0.0124523 bus1=p13udt6398lv.1.2 bus2=p13ulv14234.1.2 switch=n enabled=y phases=2 Linecode=1P_UG_AL_1/0_Brenau_2

New Line.l(r:p13udt6398lv-p13ulv14271) Units=km Length=0.014503 bus1=p13udt6398lv.1.2 bus2=p13ulv14271.1.2 switch=n enabled=y phases=2 Linecode=1P_UG_AL_1/0_Brenau_2

New Line.l(r:p13udm27562-p13ulv14232) Units=km Length=0.01184 bus1=p13udm27562.1.2 bus2=p13ulv14232.1.2 switch=n enabled=y phases=2 Linecode=1P_UG_AL_1/0_Brenau_2

New Line.l(r:p13udm27562-p13ulv14269) Units=km Length=0.014326 bus1=p13udm27562.1.2 bus2=p13ulv14269.1.2 switch=n enabled=y phases=2 Linecode=1P_UG_AL_2/0_Converse_2

New Line.l(r:p13udm27563-p13ulv14233) Units=km Length=0.0120777 bus1=p13udm27563.1.2 bus2=p13ulv14233.1.2 switch=n enabled=y phases=2 Linecode=1P_UG_AL_1/0_Brenau_2

New Line.l(r:p13udm27561-p13ulv14230) Units=km Length=0.0123982 bus1=p13udm27561.1.2 bus2=p13ulv14230.1.2 switch=n enabled=y phases=2 Linecode=1P_UG_AL_1/0_Brenau_2

New Line.l(r:p13udm27561-p13udm27563) Units=km Length=0.00958522 bus1=p13udm27563.1.2 bus2=p13udm27561.1.2 switch=n enabled=y phases=2 Linecode=1P_UG_AL_1/0_Brenau_2

New Line.l(r:p13udm27562-p13udm27563) Units=km Length=0.009571480000000002 bus1=p13udm27562.1.2 bus2=p13udm27563.1.2 switch=n enabled=y phases=2 Linecode=1P_UG_AL_1/0_Brenau_2

New Line.l(r:p13udm27562-p13udt6398lv) Units=km Length=0.00958003 bus1=p13udt6398lv.1.2 bus2=p13udm27562.1.2 switch=n enabled=y phases=2 Linecode=1P_UG_AL_4/0_Sweetbriar_2

New Line.l(r:p13udm27565-p13ulv14235) Units=km Length=0.0124231 bus1=p13udm27565.1.2 bus2=p13ulv14235.1.2 switch=n enabled=y phases=2 Linecode=1P_UG_AL_1/0_Brenau_2

New Line.l(r:p13udm27565-p13ulv14272) Units=km Length=0.0146213 bus1=p13udm27565.1.2 bus2=p13ulv14272.1.2 switch=n enabled=y phases=2 Linecode=1P_UG_AL_1/0_Brenau_2

New Line.l(r:p13udm27566-p13ulv14236) Units=km Length=0.0109615 bus1=p13udm27566.1.2 bus2=p13ulv14236.1.2 switch=n enabled=y phases=2 Linecode=1P_UG_AL_1/0_Brenau_2

New Line.l(r:p13udm27565-p13udm27566) Units=km Length=0.00958003 bus1=p13udm27565.1.2 bus2=p13udm27566.1.2 switch=n enabled=y phases=2 Linecode=1P_UG_AL_1/0_Brenau_2

New Line.l(r:p13udm27565-p13udt6398lv) Units=km Length=0.009576680000000002 bus1=p13udt6398lv.1.2 bus2=p13udm27565.1.2 switch=n enabled=y phases=2 Linecode=1P_UG_AL_2/0_Converse_2

New Line.l(r:p13udt6399lv-p13ulv14763) Units=km Length=0.018993 bus1=p13udt6399lv.1.2 bus2=p13ulv14763.1.2 switch=n enabled=y phases=2 Linecode=1P_UG_AL_1/0_Brenau_2

New Line.l(r:p13udm27572-p13ulv90371) Units=km Length=0.009273020000000002 bus1=p13udm27572.1.2 bus2=p13ulv90371.1.2 switch=n enabled=y phases=2 Linecode=1P_UG_AL_1/0_Brenau_2

New Line.l(r:p13udm27570-p13ulv14237) Units=km Length=0.014382000000000002 bus1=p13udm27570.1.2 bus2=p13ulv14237.1.2 switch=n enabled=y phases=2 Linecode=1P_UG_AL_1/0_Brenau_2

New Line.l(r:p13udm27570-p13udm27572) Units=km Length=0.00956294 bus1=p13udm27572.1.2 bus2=p13udm27570.1.2 switch=n enabled=y phases=2 Linecode=1P_UG_AL_1/0_Brenau_2

New Line.l(r:p13udm27572-p13udt6399lv) Units=km Length=0.009571480000000002 bus1=p13udt6399lv.1.2 bus2=p13udm27572.1.2 switch=n enabled=y phases=2 Linecode=1P_UG_AL_2/0_Converse_2

New Line.l(r:p13udt6400lv-p13ulv90368) Units=km Length=0.010139000000000002 bus1=p13udt6400lv.1.2 bus2=p13ulv90368.1.2 switch=n enabled=y phases=2 Linecode=1P_UG_AL_1/0_Brenau_2

New Line.l(r:p13udt6400lv-p13ulv90375) Units=km Length=0.0136641 bus1=p13udt6400lv.1.2 bus2=p13ulv90375.1.2 switch=n enabled=y phases=2 Linecode=1P_UG_AL_1/0_Brenau_2

New Line.l(r:p13udm27573-p13ulv14238) Units=km Length=0.027378200000000002 bus1=p13udm27573.1.2 bus2=p13ulv14238.1.2 switch=n enabled=y phases=2 Linecode=1P_UG_AL_1/0_Brenau_2

New Line.l(r:p13udm27573-p13udt6400lv) Units=km Length=0.009571480000000002 bus1=p13udt6400lv.1.2 bus2=p13udm27573.1.2 switch=n enabled=y phases=2 Linecode=1P_UG_AL_1/0_Brenau_2

New Line.l(r:p13udt6401lv-p13ulv14240) Units=km Length=0.00836714 bus1=p13udt6401lv.1.2 bus2=p13ulv14240.1.2 switch=n enabled=y phases=2 Linecode=1P_UG_AL_1/0_Brenau_2

New Line.l(r:p13udm27578-p13ulv14241) Units=km Length=0.00902557 bus1=p13udm27578.1.2 bus2=p13ulv14241.1.2 switch=n enabled=y phases=2 Linecode=1P_UG_AL_1/0_Brenau_2

New Line.l(r:p13udm27581-p13ulv92219) Units=km Length=0.0158762 bus1=p13udm27581.1.2 bus2=p13ulv92219.1.2 switch=n enabled=y phases=2 Linecode=1P_OH_AL_2/0_Rucina_2

New Line.l(r:p13udm27578-p13udm27581) Units=km Length=0.040462 bus1=p13udm27578.1.2 bus2=p13udm27581.1.2 switch=n enabled=y phases=2 Linecode=1P_OH_AL_4/0_Zuzara_2

New Line.l(r:p13udm27578-p13udt6401lv) Units=km Length=0.0191567 bus1=p13udt6401lv.1.2 bus2=p13udm27578.1.2 switch=n enabled=y phases=2 Linecode=1P_UG_AL_4/0_Sweetbriar_2

New Line.l(r:p13udm27580-p13ulv14275) Units=km Length=0.0146649 bus1=p13udm27580.1.2 bus2=p13ulv14275.1.2 switch=n enabled=y phases=2 Linecode=1P_UG_AL_1/0_Brenau_2

New Line.l(r:p13udm27576-p13ulv14239) Units=km Length=0.0124011 bus1=p13udm27576.1.2 bus2=p13ulv14239.1.2 switch=n enabled=y phases=2 Linecode=1P_UG_AL_1/0_Brenau_2

New Line.l(r:p13udm27576-p13ulv14273) Units=km Length=0.0136772 bus1=p13udm27576.1.2 bus2=p13ulv14273.1.2 switch=n enabled=y phases=2 Linecode=1P_UG_AL_2/0_Converse_2

New Line.l(r:p13udm27576-p13udm27580) Units=km Length=0.00958003 bus1=p13udm27580.1.2 bus2=p13udm27576.1.2 switch=n enabled=y phases=2 Linecode=1P_UG_AL_4/0_Sweetbriar_2

New Line.l(r:p13udm27580-p13udt6401lv) Units=km Length=0.009571480000000002 bus1=p13udt6401lv.1.2 bus2=p13udm27580.1.2 switch=n enabled=y phases=2 Linecode=1P_UG_AL_4/0_Sweetbriar_2

New Line.l(r:p13udt6402lv-p13ulv14243) Units=km Length=0.0112895 bus1=p13udt6402lv.1.2 bus2=p13ulv14243.1.2 switch=n enabled=y phases=2 Linecode=1P_OH_AL_2/0_Rucina_2

New Line.l(r:p13udm27582-p13ulv14242) Units=km Length=0.0106754 bus1=p13udm27582.1.2 bus2=p13ulv14242.1.2 switch=n enabled=y phases=2 Linecode=1P_OH_AL_2/0_Rucina_2

New Line.l(r:p13udm27582-p13udt6402lv) Units=km Length=0.0169226 bus1=p13udt6402lv.1.2 bus2=p13udm27582.1.2 switch=n enabled=y phases=2 Linecode=1P_OH_AL_2/0_Rucina_2

New Line.l(r:p13udm27584-p13ulv92251) Units=km Length=0.0137101 bus1=p13udm27584.1.2 bus2=p13ulv92251.1.2 switch=n enabled=y phases=2 Linecode=1P_OH_AL_2/0_Rucina_2

New Line.l(r:p13udm27584-p13udt6402lv) Units=km Length=0.0169293 bus1=p13udt6402lv.1.2 bus2=p13udm27584.1.2 switch=n enabled=y phases=2 Linecode=1P_OH_AL_2/0_Rucina_2

New Line.l(r:p13udt6403lv-p13ulv88642) Units=km Length=0.0315438 bus1=p13udt6403lv.1.2 bus2=p13ulv88642.1.2 switch=n enabled=y phases=2 Linecode=1P_OH_AL_4/0_Zuzara_2

New Line.l(r:p13udm27585-p13ulv14244) Units=km Length=0.009158030000000001 bus1=p13udm27585.1.2 bus2=p13ulv14244.1.2 switch=n enabled=y phases=2 Linecode=1P_OH_AL_2/0_Rucina_2

New Line.l(r:p13udm27585-p13udt6403lv) Units=km Length=0.0156582 bus1=p13udt6403lv.1.2 bus2=p13udm27585.1.2 switch=n enabled=y phases=2 Linecode=1P_OH_AL_2/0_Rucina_2

New Line.l(r:p13udm27587-p13ulv14245) Units=km Length=0.00636202 bus1=p13udm27587.1.2 bus2=p13ulv14245.1.2 switch=n enabled=y phases=2 Linecode=1P_UG_AL_4/0_Sweetbriar_2

New Line.l(r:p13udm27587-p13udt6404lv) Units=km Length=0.016047 bus1=p13udt6404lv.1.2 bus2=p13udm27587.1.2 switch=n enabled=y phases=2 Linecode=1P_UG_AL_4/0_Sweetbriar_2

New Line.l(r:p13udm27588-p13ulv14629) Units=km Length=0.00750057 bus1=p13udm27588.1.2 bus2=p13ulv14629.1.2 switch=n enabled=y phases=2 Linecode=1P_UG_AL_4/0_Sweetbriar_2

New Line.l(r:p13udm27588-p13udt6404lv) Units=km Length=0.0123037 bus1=p13udt6404lv.1.2 bus2=p13udm27588.1.2 switch=n enabled=y phases=2 Linecode=1P_UG_AL_4/0_Sweetbriar_2

New Line.l(r:p13udm27590-p13ulv14247) Units=km Length=0.0152504 bus1=p13udm27590.1.2 bus2=p13ulv14247.1.2 switch=n enabled=y phases=2 Linecode=1P_OH_AL_2/0_Rucina_2

New Line.l(r:p13udm27590-p13udt6406lv) Units=km Length=0.0385409 bus1=p13udt6406lv.1.2 bus2=p13udm27590.1.2 switch=n enabled=y phases=2 Linecode=1P_OH_AL_4/0_Zuzara_2

New Line.l(r:p13udm27591-p13ulv14815) Units=km Length=0.00782081 bus1=p13udm27591.1.2 bus2=p13ulv14815.1.2 switch=n enabled=y phases=2 Linecode=1P_UG_AL_4/0_Sweetbriar_2

New Line.l(r:p13udm27591-p13udt6406lv) Units=km Length=0.00901426 bus1=p13udt6406lv.1.2 bus2=p13udm27591.1.2 switch=n enabled=y phases=2 Linecode=1P_UG_AL_4/0_Sweetbriar_2

New Line.l(r:p13udt6407lv-p13ulv88657) Units=km Length=0.0155804 bus1=p13udt6407lv.1.2 bus2=p13ulv88657.1.2 switch=n enabled=y phases=2 Linecode=1P_UG_AL_1/0_Brenau_2

New Line.l(r:p13udt6407lv-p13ulv88674) Units=km Length=0.0129142 bus1=p13udt6407lv.1.2 bus2=p13ulv88674.1.2 switch=n enabled=y phases=2 Linecode=1P_UG_AL_1/0_Brenau_2

New Line.l(r:p13udm27594-p13ulv88667) Units=km Length=0.0156263 bus1=p13udm27594.1.2 bus2=p13ulv88667.1.2 switch=n enabled=y phases=2 Linecode=1P_UG_AL_1/0_Brenau_2

New Line.l(r:p13udm27592-p13ulv14248) Units=km Length=0.011179 bus1=p13udm27592.1.2 bus2=p13ulv14248.1.2 switch=n enabled=y phases=2 Linecode=1P_UG_AL_4/0_Sweetbriar_2

New Line.l(r:p13udm27592-p13udm27594) Units=km Length=0.0192896 bus1=p13udm27594.1.2 bus2=p13udm27592.1.2 switch=n enabled=y phases=2 Linecode=1P_UG_AL_4/0_Sweetbriar_2

New Line.l(r:p13udm27594-p13udt6407lv) Units=km Length=0.0096405 bus1=p13udt6407lv.1.2 bus2=p13udm27594.1.2 switch=n enabled=y phases=2 Linecode=1P_UG_AL_4/0_Sweetbriar_2

New Line.l(r:p13udm27595-p13ulv88668) Units=km Length=0.0132128 bus1=p13udm27595.1.2 bus2=p13ulv88668.1.2 switch=n enabled=y phases=2 Linecode=1P_UG_AL_1/0_Brenau_2

New Line.l(r:p13udm27595-p13udt6407lv) Units=km Length=0.0096405 bus1=p13udt6407lv.1.2 bus2=p13udm27595.1.2 switch=n enabled=y phases=2 Linecode=1P_UG_AL_1/0_Brenau_2

New Line.l(r:p13udt6408lv-p13ulv14251) Units=km Length=0.0160651 bus1=p13udt6408lv.1.2 bus2=p13ulv14251.1.2 switch=n enabled=y phases=2 Linecode=1P_UG_AL_1/0_Brenau_2

New Line.l(r:p13udt6408lv-p13ulv88634) Units=km Length=0.0143958 bus1=p13udt6408lv.1.2 bus2=p13ulv88634.1.2 switch=n enabled=y phases=2 Linecode=1P_UG_AL_1/0_Brenau_2

New Line.l(r:p13udm27597-p13ulv14249) Units=km Length=0.016162 bus1=p13udm27597.1.2 bus2=p13ulv14249.1.2 switch=n enabled=y phases=2 Linecode=1P_UG_AL_1/0_Brenau_2

New Line.l(r:p13udm27597-p13ulv14820) Units=km Length=0.0115132 bus1=p13udm27597.1.2 bus2=p13ulv14820.1.2 switch=n enabled=y phases=2 Linecode=1P_UG_AL_1/0_Brenau_2

New Line.l(r:p13udm27597-p13udt6408lv) Units=km Length=0.0096405 bus1=p13udt6408lv.1.2 bus2=p13udm27597.1.2 switch=n enabled=y phases=2 Linecode=1P_UG_AL_4/0_Sweetbriar_2

New Line.l(r:p13udm27599-p13ulv14252) Units=km Length=0.0158585 bus1=p13udm27599.1.2 bus2=p13ulv14252.1.2 switch=n enabled=y phases=2 Linecode=1P_UG_AL_1/0_Brenau_2

New Line.l(r:p13udm27599-p13udt6408lv) Units=km Length=0.0096405 bus1=p13udt6408lv.1.2 bus2=p13udm27599.1.2 switch=n enabled=y phases=2 Linecode=1P_UG_AL_1/0_Brenau_2

New Line.l(r:p13udt6409lv-p13ulv14253) Units=km Length=0.014950800000000002 bus1=p13udt6409lv.1.2 bus2=p13ulv14253.1.2 switch=n enabled=y phases=2 Linecode=1P_UG_AL_1/0_Brenau_2

New Line.l(r:p13udt6409lv-p13ulv88630) Units=km Length=0.0152067 bus1=p13udt6409lv.1.2 bus2=p13ulv88630.1.2 switch=n enabled=y phases=2 Linecode=1P_UG_AL_1/0_Brenau_2

New Line.l(r:p13udm27603-p13ulv14254) Units=km Length=0.0142898 bus1=p13udm27603.1.2 bus2=p13ulv14254.1.2 switch=n enabled=y phases=2 Linecode=1P_UG_AL_1/0_Brenau_2

New Line.l(r:p13udm27603-p13ulv88624) Units=km Length=0.0158312 bus1=p13udm27603.1.2 bus2=p13ulv88624.1.2 switch=n enabled=y phases=2 Linecode=1P_UG_AL_1/0_Brenau_2

New Line.l(r:p13udm27603-p13udt6409lv) Units=km Length=0.0096405 bus1=p13udt6409lv.1.2 bus2=p13udm27603.1.2 switch=n enabled=y phases=2 Linecode=1P_UG_AL_1/0_Brenau_2

New Line.l(r:p13udt6410lv-p13ulv14255) Units=km Length=0.014820100000000001 bus1=p13udt6410lv.1.2 bus2=p13ulv14255.1.2 switch=n enabled=y phases=2 Linecode=1P_UG_AL_1/0_Brenau_2

New Line.l(r:p13udm27607-p13ulv14822) Units=km Length=0.0150897 bus1=p13udm27607.1.2 bus2=p13ulv14822.1.2 switch=n enabled=y phases=2 Linecode=1P_UG_AL_1/0_Brenau_2

New Line.l(r:p13udm27607-p13ulv90519) Units=km Length=0.0151697 bus1=p13udm27607.1.2 bus2=p13ulv90519.1.2 switch=n enabled=y phases=2 Linecode=1P_UG_AL_1/0_Brenau_2

New Line.l(r:p13udm27609-p13ulv88615) Units=km Length=0.0167685 bus1=p13udm27609.1.2 bus2=p13ulv88615.1.2 switch=n enabled=y phases=2 Linecode=1P_UG_AL_1/0_Brenau_2

New Line.l(r:p13udm27609-p13ulv90528) Units=km Length=0.0131389 bus1=p13udm27609.1.2 bus2=p13ulv90528.1.2 switch=n enabled=y phases=2 Linecode=1P_UG_AL_1/0_Brenau_2

New Line.l(r:p13udm27607-p13udm27609) Units=km Length=0.0096405 bus1=p13udm27607.1.2 bus2=p13udm27609.1.2 switch=n enabled=y phases=2 Linecode=1P_UG_AL_1/0_Brenau_2

New Line.l(r:p13udm27607-p13udt6410lv) Units=km Length=0.0096405 bus1=p13udt6410lv.1.2 bus2=p13udm27607.1.2 switch=n enabled=y phases=2 Linecode=1P_UG_AL_4/0_Sweetbriar_2

New Line.l(r:p13udm27608-p13ulv14824) Units=km Length=0.0141919 bus1=p13udm27608.1.2 bus2=p13ulv14824.1.2 switch=n enabled=y phases=2 Linecode=1P_UG_AL_1/0_Brenau_2

New Line.l(r:p13udm27610-p13ulv90493) Units=km Length=0.00888167 bus1=p13udm27610.1.2 bus2=p13ulv90493.1.2 switch=n enabled=y phases=2 Linecode=1P_UG_AL_4/0_Sweetbriar_2

New Line.l(r:p13udm27608-p13udm27610) Units=km Length=0.0096405 bus1=p13udm27608.1.2 bus2=p13udm27610.1.2 switch=n enabled=y phases=2 Linecode=1P_UG_AL_4/0_Sweetbriar_2

New Line.l(r:p13udm27608-p13udt6410lv) Units=km Length=0.0096405 bus1=p13udt6410lv.1.2 bus2=p13udm27608.1.2 switch=n enabled=y phases=2 Linecode=1P_UG_AL_4/0_Sweetbriar_2

New Line.l(r:p13udm27615-p13ulv14826) Units=km Length=0.010968 bus1=p13udm27615.1.2 bus2=p13ulv14826.1.2 switch=n enabled=y phases=2 Linecode=1P_UG_AL_1/0_Brenau_2

New Line.l(r:p13udm27615-p13ulv90472) Units=km Length=0.0112826 bus1=p13udm27615.1.2 bus2=p13ulv90472.1.2 switch=n enabled=y phases=2 Linecode=1P_UG_AL_1/0_Brenau_2

New Line.l(r:p13udm27614-p13ulv14825) Units=km Length=0.0106338 bus1=p13udm27614.1.2 bus2=p13ulv14825.1.2 switch=n enabled=y phases=2 Linecode=1P_UG_AL_1/0_Brenau_2

New Line.l(r:p13udm27616-p13ulv14827) Units=km Length=0.0108516 bus1=p13udm27616.1.2 bus2=p13ulv14827.1.2 switch=n enabled=y phases=2 Linecode=1P_UG_AL_1/0_Brenau_2

New Line.l(r:p13udm27614-p13udm27616) Units=km Length=0.00888083 bus1=p13udm27614.1.2 bus2=p13udm27616.1.2 switch=n enabled=y phases=2 Linecode=1P_UG_AL_1/0_Brenau_2

New Line.l(r:p13udm27614-p13udm27615) Units=km Length=0.00887559 bus1=p13udm27615.1.2 bus2=p13udm27614.1.2 switch=n enabled=y phases=2 Linecode=1P_UG_AL_1/0_Brenau_2

New Line.l(r:p13udm27615-p13udt6411lv) Units=km Length=0.00888083 bus1=p13udt6411lv.1.2 bus2=p13udm27615.1.2 switch=n enabled=y phases=2 Linecode=1P_UG_AL_4/0_Sweetbriar_2

New Line.l(r:p13udm27618-p13ulv90490) Units=km Length=0.00975779 bus1=p13udm27618.1.2 bus2=p13ulv90490.1.2 switch=n enabled=y phases=2 Linecode=1P_UG_AL_1/0_Brenau_2

New Line.l(r:p13udm27618-p13ulv90499) Units=km Length=0.00830437 bus1=p13udm27618.1.2 bus2=p13ulv90499.1.2 switch=n enabled=y phases=2 Linecode=1P_UG_AL_1/0_Brenau_2

New Line.l(r:p13udm27613-p13ulv14256) Units=km Length=0.00832169 bus1=p13udm27613.1.2 bus2=p13ulv14256.1.2 switch=n enabled=y phases=2 Linecode=1P_UG_AL_1/0_Brenau_2

New Line.l(r:p13udm27613-p13udm27618) Units=km Length=0.00932637 bus1=p13udm27618.1.2 bus2=p13udm27613.1.2 switch=n enabled=y phases=2 Linecode=1P_UG_AL_1/0_Brenau_2

New Line.l(r:p13udm27618-p13udt6411lv) Units=km Length=0.00888083 bus1=p13udt6411lv.1.2 bus2=p13udm27618.1.2 switch=n enabled=y phases=2 Linecode=1P_UG_AL_2/0_Converse_2

New Line.l(r:p13udt6412lv-p13ulv14258) Units=km Length=0.0116999 bus1=p13udt6412lv.1.2 bus2=p13ulv14258.1.2 switch=n enabled=y phases=2 Linecode=1P_UG_AL_1/0_Brenau_2

New Line.l(r:p13udt6412lv-p13ulv90447) Units=km Length=0.014640100000000001 bus1=p13udt6412lv.1.2 bus2=p13ulv90447.1.2 switch=n enabled=y phases=2 Linecode=1P_UG_AL_1/0_Brenau_2

New Line.l(r:p13udm27620-p13ulv14257) Units=km Length=0.0153474 bus1=p13udm27620.1.2 bus2=p13ulv14257.1.2 switch=n enabled=y phases=2 Linecode=1P_UG_AL_1/0_Brenau_2

New Line.l(r:p13udm27620-p13udt6412lv) Units=km Length=0.0268636 bus1=p13udt6412lv.1.2 bus2=p13udm27620.1.2 switch=n enabled=y phases=2 Linecode=1P_UG_AL_1/0_Brenau_2

New Line.l(r:p13udm27622-p13ulv14828) Units=km Length=0.008844700000000002 bus1=p13udm27622.1.2 bus2=p13ulv14828.1.2 switch=n enabled=y phases=2 Linecode=1P_UG_AL_1/0_Brenau_2

New Line.l(r:p13udm27622-p13ulv90463) Units=km Length=0.00884625 bus1=p13udm27622.1.2 bus2=p13ulv90463.1.2 switch=n enabled=y phases=2 Linecode=1P_UG_AL_1/0_Brenau_2

New Line.l(r:p13udm27629-p13ulv90496) Units=km Length=0.0159223 bus1=p13udm27629.1.2 bus2=p13ulv90496.1.2 switch=n enabled=y phases=2 Linecode=1P_UG_AL_1/0_Brenau_2

New Line.l(r:p13udm27622-p13udm27629) Units=km Length=0.0843847 bus1=p13udm27622.1.2 bus2=p13udm27629.1.2 switch=n enabled=y phases=2 Linecode=1P_UG_AL_1/0_Brenau_2

New Line.l(r:p13udm27622-p13udt6412lv) Units=km Length=0.018555100000000005 bus1=p13udt6412lv.1.2 bus2=p13udm27622.1.2 switch=n enabled=y phases=2 Linecode=1P_UG_AL_2/0_Converse_2

New Line.l(r:p13udm27625-p13ulv90440) Units=km Length=0.0155279 bus1=p13udm27625.1.2 bus2=p13ulv90440.1.2 switch=n enabled=y phases=2 Linecode=1P_UG_AL_1/0_Brenau_2

New Line.l(r:p13udm27625-p13ulv90459) Units=km Length=0.0111002 bus1=p13udm27625.1.2 bus2=p13ulv90459.1.2 switch=n enabled=y phases=2 Linecode=1P_UG_AL_1/0_Brenau_2

New Line.l(r:p13udm27623-p13ulv14829) Units=km Length=0.0124954 bus1=p13udm27623.1.2 bus2=p13ulv14829.1.2 switch=n enabled=y phases=2 Linecode=1P_UG_AL_1/0_Brenau_2

New Line.l(r:p13udm27623-p13ulv90435) Units=km Length=0.014247000000000001 bus1=p13udm27623.1.2 bus2=p13ulv90435.1.2 switch=n enabled=y phases=2 Linecode=1P_UG_AL_1/0_Brenau_2

New Line.l(r:p13udm27623-p13udm27625) Units=km Length=0.0181869 bus1=p13udm27625.1.2 bus2=p13udm27623.1.2 switch=n enabled=y phases=2 Linecode=1P_UG_AL_1/0_Brenau_2

New Line.l(r:p13udm27625-p13udt6412lv) Units=km Length=0.00910207 bus1=p13udt6412lv.1.2 bus2=p13udm27625.1.2 switch=n enabled=y phases=2 Linecode=1P_UG_AL_4/0_Sweetbriar_2

New Line.l(r:p13udt6413lv-p13ulv90418) Units=km Length=0.029052800000000004 bus1=p13udt6413lv.1.2 bus2=p13ulv90418.1.2 switch=n enabled=y phases=2 Linecode=1P_UG_AL_1/0_Brenau_2

New Line.l(r:p13udm27631-p13ulv90402) Units=km Length=0.0166766 bus1=p13udm27631.1.2 bus2=p13ulv90402.1.2 switch=n enabled=y phases=2 Linecode=1P_UG_AL_2/0_Converse_2

New Line.l(r:p13udm27630-p13ulv14259) Units=km Length=0.0114669 bus1=p13udm27630.1.2 bus2=p13ulv14259.1.2 switch=n enabled=y phases=2 Linecode=1P_UG_AL_1/0_Brenau_2

New Line.l(r:p13udm27630-p13udm27631) Units=km Length=0.00986868 bus1=p13udm27631.1.2 bus2=p13udm27630.1.2 switch=n enabled=y phases=2 Linecode=1P_UG_AL_1/0_Brenau_2

New Line.l(r:p13udm27631-p13udt6413lv) Units=km Length=0.00987731 bus1=p13udt6413lv.1.2 bus2=p13udm27631.1.2 switch=n enabled=y phases=2 Linecode=1P_UG_AL_4/0_Sweetbriar_2

New Line.l(r:p13udm27633-p13ulv90452) Units=km Length=0.0148795 bus1=p13udm27633.1.2 bus2=p13ulv90452.1.2 switch=n enabled=y phases=2 Linecode=1P_UG_AL_1/0_Brenau_2

New Line.l(r:p13udm27633-p13udt6413lv) Units=km Length=0.0296096 bus1=p13udt6413lv.1.2 bus2=p13udm27633.1.2 switch=n enabled=y phases=2 Linecode=1P_UG_AL_1/0_Brenau_2

New Line.l(r:p13udt6414lv-p13ulv14260) Units=km Length=0.009951390000000001 bus1=p13udt6414lv.1.2 bus2=p13ulv14260.1.2 switch=n enabled=y phases=2 Linecode=1P_UG_AL_1/0_Brenau_2

New Line.l(r:p13udm27635-p13ulv14262) Units=km Length=0.0102537 bus1=p13udm27635.1.2 bus2=p13ulv14262.1.2 switch=n enabled=y phases=2 Linecode=1P_UG_AL_1/0_Brenau_2

New Line.l(r:p13udm27635-p13ulv90460) Units=km Length=0.0162556 bus1=p13udm27635.1.2 bus2=p13ulv90460.1.2 switch=n enabled=y phases=2 Linecode=1P_UG_AL_1/0_Brenau_2

New Line.l(r:p13udm27636-p13ulv14263) Units=km Length=0.0136874 bus1=p13udm27636.1.2 bus2=p13ulv14263.1.2 switch=n enabled=y phases=2 Linecode=1P_UG_AL_1/0_Brenau_2

New Line.l(r:p13udm27635-p13udm27636) Units=km Length=0.00986364 bus1=p13udm27635.1.2 bus2=p13udm27636.1.2 switch=n enabled=y phases=2 Linecode=1P_UG_AL_1/0_Brenau_2

New Line.l(r:p13udm27635-p13udt6414lv) Units=km Length=0.00986868 bus1=p13udt6414lv.1.2 bus2=p13udm27635.1.2 switch=n enabled=y phases=2 Linecode=1P_UG_AL_4/0_Sweetbriar_2

New Line.l(r:p13udm27637-p13ulv14299) Units=km Length=0.0157563 bus1=p13udm27637.1.2 bus2=p13ulv14299.1.2 switch=n enabled=y phases=2 Linecode=1P_UG_AL_4/0_Sweetbriar_2

New Line.l(r:p13udm27637-p13udt6414lv) Units=km Length=0.00987731 bus1=p13udt6414lv.1.2 bus2=p13udm27637.1.2 switch=n enabled=y phases=2 Linecode=1P_UG_AL_4/0_Sweetbriar_2

New Line.l(r:p13udt6415lv-p13ulv14264) Units=km Length=0.00962663 bus1=p13udt6415lv.1.2 bus2=p13ulv14264.1.2 switch=n enabled=y phases=2 Linecode=1P_UG_AL_1/0_Brenau_2

New Line.l(r:p13udt6415lv-p13ulv14298) Units=km Length=0.0155961 bus1=p13udt6415lv.1.2 bus2=p13ulv14298.1.2 switch=n enabled=y phases=2 Linecode=1P_UG_AL_1/0_Brenau_2

New Line.l(r:p13udm27640-p13ulv14265) Units=km Length=0.0181504 bus1=p13udm27640.1.2 bus2=p13ulv14265.1.2 switch=n enabled=y phases=2 Linecode=1P_UG_AL_4/0_Sweetbriar_2

New Line.l(r:p13udm27640-p13udt6415lv) Units=km Length=0.00986868 bus1=p13udt6415lv.1.2 bus2=p13udm27640.1.2 switch=n enabled=y phases=2 Linecode=1P_UG_AL_4/0_Sweetbriar_2

New Line.l(r:p13udm27642-p13ulv90479) Units=km Length=0.0100622 bus1=p13udm27642.1.2 bus2=p13ulv90479.1.2 switch=n enabled=y phases=2 Linecode=1P_UG_AL_1/0_Brenau_2

New Line.l(r:p13udm27642-p13udt6415lv) Units=km Length=0.00986868 bus1=p13udt6415lv.1.2 bus2=p13udm27642.1.2 switch=n enabled=y phases=2 Linecode=1P_UG_AL_1/0_Brenau_2

New Line.l(r:p13udt6416lv-p13ulv88619) Units=km Length=0.042021 bus1=p13udt6416lv.1.2 bus2=p13ulv88619.1.2 switch=n enabled=y phases=2 Linecode=1P_UG_AL_2/0_Converse_2

New Line.l(r:p13udm27643-p13ulv14266) Units=km Length=0.00956805 bus1=p13udm27643.1.2 bus2=p13ulv14266.1.2 switch=n enabled=y phases=2 Linecode=1P_UG_AL_4/0_Sweetbriar_2

New Line.l(r:p13udm27643-p13udt6416lv) Units=km Length=0.00986364 bus1=p13udt6416lv.1.2 bus2=p13udm27643.1.2 switch=n enabled=y phases=2 Linecode=1P_UG_AL_4/0_Sweetbriar_2

New Line.l(r:p13udt6417lv-p13ulv14267) Units=km Length=0.0116728 bus1=p13udt6417lv.1.2 bus2=p13ulv14267.1.2 switch=n enabled=y phases=2 Linecode=1P_UG_AL_1/0_Brenau_2

New Line.l(r:p13udt6417lv-p13ulv88625) Units=km Length=0.0179242 bus1=p13udt6417lv.1.2 bus2=p13ulv88625.1.2 switch=n enabled=y phases=2 Linecode=1P_UG_AL_1/0_Brenau_2

New Line.l(r:p13udm27648-p13ulv88633) Units=km Length=0.0104398 bus1=p13udm27648.1.2 bus2=p13ulv88633.1.2 switch=n enabled=y phases=2 Linecode=1P_UG_AL_1/0_Brenau_2

New Line.l(r:p13udm27648-p13udt6417lv) Units=km Length=0.00987227 bus1=p13udt6417lv.1.2 bus2=p13udm27648.1.2 switch=n enabled=y phases=2 Linecode=1P_UG_AL_1/0_Brenau_2

New Line.l(r:p13udm27649-p13ulv88638) Units=km Length=0.0162426 bus1=p13udm27649.1.2 bus2=p13ulv88638.1.2 switch=n enabled=y phases=2 Linecode=1P_UG_AL_1/0_Brenau_2

New Line.l(r:p13udm27646-p13ulv14292) Units=km Length=0.0407614 bus1=p13udm27646.1.2 bus2=p13ulv14292.1.2 switch=n enabled=y phases=2 Linecode=1P_UG_AL_1/0_Brenau_2

New Line.l(r:p13udm27646-p13udm27649) Units=km Length=0.00986868 bus1=p13udm27649.1.2 bus2=p13udm27646.1.2 switch=n enabled=y phases=2 Linecode=1P_UG_AL_1/0_Brenau_2

New Line.l(r:p13udm27649-p13udt6417lv) Units=km Length=0.00986868 bus1=p13udt6417lv.1.2 bus2=p13udm27649.1.2 switch=n enabled=y phases=2 Linecode=1P_UG_AL_1/0_Brenau_2

New Line.l(r:p13udt6418lv-p13ulv14268) Units=km Length=0.0140511 bus1=p13udt6418lv.1.2 bus2=p13ulv14268.1.2 switch=n enabled=y phases=2 Linecode=1P_UG_AL_1/0_Brenau_2

New Line.l(r:p13udt6418lv-p13ulv90399) Units=km Length=0.0126682 bus1=p13udt6418lv.1.2 bus2=p13ulv90399.1.2 switch=n enabled=y phases=2 Linecode=1P_UG_AL_1/0_Brenau_2

New Line.l(r:p13udm27651-p13ulv90388) Units=km Length=0.0135965 bus1=p13udm27651.1.2 bus2=p13ulv90388.1.2 switch=n enabled=y phases=2 Linecode=1P_UG_AL_1/0_Brenau_2

New Line.l(r:p13udm27651-p13ulv90410) Units=km Length=0.0124944 bus1=p13udm27651.1.2 bus2=p13ulv90410.1.2 switch=n enabled=y phases=2 Linecode=1P_UG_AL_1/0_Brenau_2

New Line.l(r:p13udm27651-p13udt6418lv) Units=km Length=0.00958522 bus1=p13udt6418lv.1.2 bus2=p13udm27651.1.2 switch=n enabled=y phases=2 Linecode=1P_UG_AL_1/0_Brenau_2

...