voltage-tiling/data/p13u_violations/p13uhs5_1247--p13udt27246/Loads.dss
New Load.load_p13ulv10490_1 conn=wye bus1=p13ulv10490.1 kV=0.12 Vminpu=0.8 Vmaxpu=1.2 model=1 kW=4.237064396976419 kvar=0.25029256707639685 Phases=1 yearly=com_kw_1949_pu

New Load.load_p13ulv10490_2 conn=wye bus1=p13ulv10490.2 kV=0.12 Vminpu=0.8 Vmaxpu=1.2 model=1 kW=4.237064396976419 kvar=0.25029256707639685 Phases=1 yearly=com_kw_1949_pu

New Load.load_p13ulv10491_1 conn=wye bus1=p13ulv10491.1 kV=0.12 Vminpu=0.8 Vmaxpu=1.2 model=1 kW=4.237064396976419 kvar=0.25029256707639685 Phases=1 yearly=com_kw_1949_pu

New Load.load_p13ulv10491_2 conn=wye bus1=p13ulv10491.2 kV=0.12 Vminpu=0.8 Vmaxpu=1.2 model=1 kW=4.237064396976419 kvar=0.25029256707639685 Phases=1 yearly=com_kw_1949_pu

New Load.load_p13ulv10492 conn=wye bus1=p13ulv10492.1.2.3 kV=0.48 Vminpu=0.8 Vmaxpu=1.2 model=1 kW=42.15804967437674 kvar=10.252789913315052 Phases=3 yearly=com_kw_19561_pu

New Load.load_p13ulv10493_1 conn=wye bus1=p13ulv10493.1 kV=0.12 Vminpu=0.8 Vmaxpu=1.2 model=1 kW=2.6177176722165996 kvar=0.35262955135220253 Phases=1 yearly=com_kw_2476_pu

New Load.load_p13ulv10493_2 conn=wye bus1=p13ulv10493.2 kV=0.12 Vminpu=0.8 Vmaxpu=1.2 model=1 kW=2.6177176722165996 kvar=0.35262955135220253 Phases=1 yearly=com_kw_2476_pu

New Load.load_p13ulv10494_1 conn=wye bus1=p13ulv10494.1 kV=0.12 Vminpu=0.8 Vmaxpu=1.2 model=1 kW=2.802717379105421 kvar=0.026623133233749544 Phases=1 yearly=com_kw_16677_pu

New Load.load_p13ulv10494_2 conn=wye bus1=p13ulv10494.2 kV=0.12 Vminpu=0.8 Vmaxpu=1.2 model=1 kW=2.802717379105421 kvar=0.026623133233749544 Phases=1 yearly=com_kw_16677_pu

New Load.load_p13ulv10495_1 conn=wye bus1=p13ulv10495.1 kV=0.12 Vminpu=0.8 Vmaxpu=1.2 model=1 kW=3.38660257899561 kvar=0.2555214623459447 Phases=1 yearly=com_kw_41556_pu

New Load.load_p13ulv10495_2 conn=wye bus1=p13ulv10495.2 kV=0.12 Vminpu=0.8 Vmaxpu=1.2 model=1 kW=3.38660257899561 kvar=0.2555214623459447 Phases=1 yearly=com_kw_41556_pu

New Load.load_p13ulv10496_1 conn=wye bus1=p13ulv10496.1 kV=0.12 Vminpu=0.8 Vmaxpu=1.2 model=1 kW=2.3528174048424977 kvar=0.6585735133710123 Phases=1 yearly=com_kw_29330_pu

New Load.load_p13ulv10496_2 conn=wye bus1=p13ulv10496.2 kV=0.12 Vminpu=0.8 Vmaxpu=1.2 model=1 kW=2.3528174048424977 kvar=0.6585735133710123 Phases=1 yearly=com_kw_29330_pu

New Load.load_p13ulv10497_1 conn=wye bus1=p13ulv10497.1 kV=0.12 Vminpu=0.8 Vmaxpu=1.2 model=1 kW=2.7201275879140105 kvar=0.5090883231833542 Phases=1 yearly=com_kw_1102_pu

New Load.load_p13ulv10497_2 conn=wye bus1=p13ulv10497.2 kV=0.12 Vminpu=0.8 Vmaxpu=1.2 model=1 kW=2.7201275879140105 kvar=0.5090883231833542 Phases=1 yearly=com_kw_1102_pu

New Load.load_p13ulv10498 conn=wye bus1=p13ulv10498.1.2.3 kV=0.48 Vminpu=0.8 Vmaxpu=1.2 model=1 kW=52.96638302857625 kvar=3.629416400540614 Phases=3 yearly=com_kw_28942_pu

New Load.load_p13ulv10511_1 conn=wye bus1=p13ulv10511.1 kV=0.12 Vminpu=0.8 Vmaxpu=1.2 model=1 kW=3.8192821785922395 kvar=0.3725137998116923 Phases=1 yearly=com_kw_2479_pu

New Load.load_p13ulv10511_2 conn=wye bus1=p13ulv10511.2 kV=0.12 Vminpu=0.8 Vmaxpu=1.2 model=1 kW=3.8192821785922395 kvar=0.3725137998116923 Phases=1 yearly=com_kw_2479_pu

New Load.load_p13ulv10512 conn=wye bus1=p13ulv10512.1.2.3 kV=0.48 Vminpu=0.8 Vmaxpu=1.2 model=1 kW=64.15462238035809 kvar=14.197783394948841 Phases=3 yearly=com_kw_17400_pu

New Load.load_p13umv9 conn=wye bus1=p13umv9.1.2.3 kV=12.47 Vminpu=0.8 Vmaxpu=1.2 model=1 kW=1181.102764160133 kvar=330.08790459651357 Phases=3 yearly=com_kw_34411_pu

New Load.load_p13ulv10513 conn=wye bus1=p13ulv10513.1.2.3 kV=0.48 Vminpu=0.8 Vmaxpu=1.2 model=1 kW=82.55808759056055 kvar=27.50240185064225 Phases=3 yearly=res_kw_11768_pu

New Load.load_p13ulv10514_1 conn=wye bus1=p13ulv10514.1 kV=0.12 Vminpu=0.8 Vmaxpu=1.2 model=1 kW=1.8820846585791586 kvar=0.45351547839580986 Phases=1 yearly=com_kw_29637_pu

New Load.load_p13ulv10514_2 conn=wye bus1=p13ulv10514.2 kV=0.12 Vminpu=0.8 Vmaxpu=1.2 model=1 kW=1.8820846585791586 kvar=0.45351547839580986 Phases=1 yearly=com_kw_29637_pu

New Load.load_p13ulv10521 conn=wye bus1=p13ulv10521.1.2.3 kV=0.48 Vminpu=0.8 Vmaxpu=1.2 model=1 kW=24.098624017552726 kvar=1.8682204855254974 Phases=3 yearly=com_kw_22628_pu

New Load.load_p13ulv10522_1 conn=wye bus1=p13ulv10522.1 kV=0.12 Vminpu=0.8 Vmaxpu=1.2 model=1 kW=2.3117163963970264 kvar=0.6176806394424428 Phases=1 yearly=com_kw_39952_pu

New Load.load_p13ulv10522_2 conn=wye bus1=p13ulv10522.2 kV=0.12 Vminpu=0.8 Vmaxpu=1.2 model=1 kW=2.3117163963970264 kvar=0.6176806394424428 Phases=1 yearly=com_kw_39952_pu

New Load.load_p13ulv10523 conn=wye bus1=p13ulv10523.1.2.3 kV=0.48 Vminpu=0.8 Vmaxpu=1.2 model=1 kW=41.420581613520916 kvar=9.285289107399604 Phases=3 yearly=com_kw_19592_pu

New Load.load_p13ulv10524_1 conn=wye bus1=p13ulv10524.1 kV=0.12 Vminpu=0.8 Vmaxpu=1.2 model=1 kW=3.6719505805085033 kvar=0.1383100493666806 Phases=1 yearly=com_kw_2007_pu

...